38
etb-gejhot.out	Energy:    -655.0039439
O          0.95135        6.24522        6.99071
H          0.38353        5.46179        7.09287
O          9.23396        7.91380        4.11063
H          9.96216        8.55796        4.15388
N          3.64109        6.86421        6.32838
H          2.88917        6.79204        5.63024
N          6.47988        7.90393        4.13153
H          7.18406        8.03593        4.87131
C          2.00403        6.15192        7.94941
H          2.51557        5.16272        7.90055
H          1.62646        6.29642        8.99051
C          3.03872        7.22746        7.61050
H          3.83722        7.15811        8.38815
C          2.44161        8.65558        7.66432
H          3.23149        9.37093        7.35162
H          1.63775        8.71959        6.89996
C          1.89722        9.07014        9.03467
H          2.65728        8.93108        9.83357
H          1.00189        8.48043        9.31970
H          1.60007       10.13873        9.04479
C          4.72403        7.70238        5.84268
H          5.46495        7.82004        6.66771
H          4.43233        8.74235        5.54507
C          5.41551        7.05162        4.64161
H          5.75619        6.02315        4.93315
H          4.65485        6.90099        3.84258
C          8.53435        8.12348        2.88578
H          9.11956        7.74798        2.01401
H          8.31936        9.20677        2.71712
C          7.19858        7.38277        2.97046
H          7.43756        6.28874        3.08942
C          6.37650        7.55080        1.67847
H          5.36029        7.14462        1.86622
H          6.23298        8.63837        1.49499
C          6.96811        6.85936        0.44606
H          7.13339        5.77715        0.63239
H          7.94323        7.29419        0.14432
H          6.28931        6.94681       -0.42626
